*SPEF "IEEE 1481-1998"
*DESIGN "aes_cipher_top"
*DATE "Thu May  4 13:20:22 2023"
*VENDOR "Cadence Design Systems, Inc."
*PROGRAM "Innovus"
*VERSION "19.10-p002_1"
*DESIGN_FLOW "COUPLING C" "PIN_CAP NONE" "NAME_SCOPE LOCAL"
*DIVIDER /
*DELIMITER :
*BUS_DELIMITER []
*T_UNIT 1 NS
*C_UNIT 1 PF
*R_UNIT 1 OHM
*L_UNIT 1 HENRY

*1 FE_OFN0_text_out_80
*2 CTS_23
*3 CTS_22
*4 CTS_19
*5 CTS_18
*6 CTS_21
*7 CTS_20
*8 CTS_15
*9 CTS_14
*10 CTS_17
*11 CTS_16
*12 CTS_13
*13 CTS_10
*14 CTS_9
*15 CTS_12
*16 CTS_11
*17 CTS_6

*25 I *C 772.08 0.242
*26 O *C 669.36 1020.56
*27 I *C 825.84 1020.56
*28 I *C 45.36 1020.56
*29 I *C 293.04 1020.56
*30 I *C 789.36 1020.56
*31 I *C 0.4 651.57
*32 I *C 836.4 0.242
*33 I *C 174 0.242
*34 I *C 0.4 438.45
*35 I *C 0.4 99.53
*36 I *C 109.68 1020.56
*37 I *C 633.84 0.242

*D_NET *1 0.0521595

*I *33272:Q O *C 635.66 405.835 *L 0 *D sky130_fd_sc_hd__dfxtp_1
*I *16463:A I *C 271.2 406.205 *L 0.00211 *D sky130_fd_sc_hd__clkbuf_4
